---- qbsp / ericw-tools v0.18.1 ----
Input file: layeredreality2.map
Output file: layeredreality2.bsp

---- LoadMapFile ----
         2165 faces
          358 brushes
          139 entities
           57 unique texnames
          585 texinfo

Opened WAD: C:/Users/jackb/Documents/quake-leveldesign-starterkit-master/wads/START.WAD
Opened WAD: ../wads/prototype_1_2.wad
Processing hull 0...
---- Brush_LoadEntity ----
          358 brushes
          580 planes
---- CSGFaces ----
         2165 brushfaces
         2133 csgfaces
         2042 mergedfaces
---- SolidBSP ----
         3676 split nodes
         1333 solid leafs
         2203 empty leafs
          141 water leafs
            0 detail leafs
            0 detail illusionary leafs
            0 detail fence leafs
            0 illusionary visblocker leafs
         7462 leaffaces
         6978 nodefaces
---- Portalize ----
         2344 vis leafs
         2344 vis clusters
         7908 vis portals
---- FillOutside ----
          557 outleafs
---- MergeAll ----
         2126 mergefaces
---- SolidBSP ----
         1680 split nodes
          616 solid leafs
         1031 empty leafs
           34 water leafs
            0 detail leafs
            0 detail illusionary leafs
            0 detail fence leafs
            0 illusionary visblocker leafs
         4907 leaffaces
         4012 nodefaces
---- Portalize ----
         1065 vis leafs
         1065 vis clusters
         4375 vis portals
---- Tjunc ----
         3189 world edges
        13361 edge points
         3153 edges added by tjunctions
            0 faces added by tjunctions
---- MakeFaceEdges ----
---- GrowRegions ----
Processing hull 1...
Processing hull 2...
*** WARNING 16: Texture __TB_empty not found
---- WriteBSPFile ----
Wrote layeredreality2.bsp
         1230 planes            24600
         5150 vertexes          61800
         1680 nodes             40320
          384 texinfo           15360
         4012 faces             80240
         6852 clipnodes         54816
         1066 leafs             29848
         4907 marksurfaces       9814
        19132 surfedges         76528
         9567 edges             38268
           57 textures         501672
              lightdata             0
              visdata               0
              entdata           11499

0.719 seconds elapsed
Peak memory usage: 30422598 (29.0M)
