---- qbsp / ericw-tools v0.18.1 ----
Input file: layeredreality2.map
Output file: layeredreality2.bsp

---- LoadMapFile ----
         2543 faces
          395 brushes
          127 entities
           56 unique texnames
          646 texinfo

Opened WAD: C:/Users/jackb/Documents/quake-leveldesign-starterkit-master/wads/START.WAD
Opened WAD: ../wads/prototype_1_2.wad
Processing hull 0...
---- Brush_LoadEntity ----
          395 brushes
          791 planes
---- CSGFaces ----
         2543 brushfaces
         2930 csgfaces
         2670 mergedfaces
---- SolidBSP ----
         3923 split nodes
         1312 solid leafs
         2470 empty leafs
          142 water leafs
            0 detail leafs
            0 detail illusionary leafs
            0 detail fence leafs
            0 illusionary visblocker leafs
         9404 leaffaces
         8180 nodefaces
---- Portalize ----
         2612 vis leafs
         2612 vis clusters
         8664 vis portals
---- FillOutside ----
          538 outleafs
---- MergeAll ----
         2755 mergefaces
---- SolidBSP ----
         1856 split nodes
          625 solid leafs
         1198 empty leafs
           34 water leafs
            0 detail leafs
            0 detail illusionary leafs
            0 detail fence leafs
            0 illusionary visblocker leafs
         6979 leaffaces
         4930 nodefaces
---- Portalize ----
         1232 vis leafs
         1232 vis clusters
         4840 vis portals
---- Tjunc ----
         4052 world edges
        16278 edge points
         4010 edges added by tjunctions
            0 faces added by tjunctions
---- MakeFaceEdges ----
---- GrowRegions ----
Processing hull 1...
Processing hull 2...
---- WriteBSPFile ----
Wrote layeredreality2.bsp
         1862 planes            37240
         6323 vertexes          75876
         1856 nodes             44544
          427 texinfo           17080
         4930 faces             98600
         7550 clipnodes         60400
         1233 leafs             34524
         6979 marksurfaces      13958
        23328 surfedges         93312
        11665 edges             46660
           56 textures         501668
              lightdata             0
              visdata               0
              entdata           10799

0.833 seconds elapsed
Peak memory usage: 35415114 (33.8M)
