---- qbsp / ericw-tools v0.18.1 ----
Input file: layeredreality2.map
Output file: layeredreality2.bsp

---- LoadMapFile ----
         1878 faces
          309 brushes
           64 entities
           31 unique texnames
          420 texinfo

Opened WAD: C:/Users/jackb/Documents/quake-leveldesign-starterkit-master/wads/START.WAD
Opened WAD: ../wads/prototype_1_2.wad
Processing hull 0...
---- Brush_LoadEntity ----
          309 brushes
          532 planes
---- CSGFaces ----
         1878 brushfaces
         1912 csgfaces
         1760 mergedfaces
---- SolidBSP ----
         2692 split nodes
          959 solid leafs
         1610 empty leafs
          124 water leafs
            0 detail leafs
            0 detail illusionary leafs
            0 detail fence leafs
            0 illusionary visblocker leafs
         6618 leaffaces
         6138 nodefaces
---- Portalize ----
         1734 vis leafs
         1734 vis clusters
         6023 vis portals
---- FillOutside ----
          458 outleafs
---- MergeAll ----
         1767 mergefaces
---- SolidBSP ----
         1211 split nodes
          460 solid leafs
          721 empty leafs
           31 water leafs
            0 detail leafs
            0 detail illusionary leafs
            0 detail fence leafs
            0 illusionary visblocker leafs
         4116 leaffaces
         3407 nodefaces
---- Portalize ----
          752 vis leafs
          752 vis clusters
         3200 vis portals
---- Tjunc ----
         2748 world edges
        11309 edge points
         2897 edges added by tjunctions
            0 faces added by tjunctions
---- MakeFaceEdges ----
---- GrowRegions ----
Processing hull 1...
Processing hull 2...
---- WriteBSPFile ----
Wrote layeredreality2.bsp
         1143 planes            22860
         4448 vertexes          53376
         1211 nodes             29064
          302 texinfo           12080
         3407 faces             68140
         5689 clipnodes         45512
          753 leafs             21084
         4116 marksurfaces       8232
        16444 surfedges         65776
         8223 edges             32892
           31 textures         310616
              lightdata             0
              visdata               0
              entdata            4066

0.670 seconds elapsed
Peak memory usage: 25705896 (24.5M)
