---- qbsp / ericw-tools v0.18.1 ----
Input file: LayeredReality.map
Output file: LayeredReality.bsp

---- LoadMapFile ----
         1596 faces
          265 brushes
           64 entities
            9 unique texnames
          343 texinfo

Opened WAD: C:/Users/jackb/Documents/quake-leveldesign-starterkit-master/wads/START.WAD
Opened WAD: ../wads/prototype_1_2.wad
Processing hull 0...
---- Brush_LoadEntity ----
          259 brushes
          429 planes
---- CSGFaces ----
         1560 brushfaces
         1509 csgfaces
         1366 mergedfaces
---- SolidBSP ----
         2162 split nodes
          818 solid leafs
         1280 empty leafs
           65 water leafs
            0 detail leafs
            0 detail illusionary leafs
            0 detail fence leafs
            0 illusionary visblocker leafs
         5494 leaffaces
         5241 nodefaces
---- Portalize ----
         1345 vis leafs
         1345 vis clusters
         4454 vis portals
---- FillOutside ----
          402 outleafs
---- MergeAll ----
         1341 mergefaces
---- SolidBSP ----
          968 split nodes
          395 solid leafs
          561 empty leafs
           13 water leafs
            0 detail leafs
            0 detail illusionary leafs
            0 detail fence leafs
            0 illusionary visblocker leafs
         3502 leaffaces
         2913 nodefaces
---- Portalize ----
          574 vis leafs
          574 vis clusters
         2051 vis portals
---- Tjunc ----
         2273 world edges
         9688 edge points
         2264 edges added by tjunctions
            0 faces added by tjunctions
---- MakeFaceEdges ----
---- GrowRegions ----
Processing hull 1...
Processing hull 2...
*** WARNING 16: Texture __TB_empty not found
---- WriteBSPFile ----
Wrote LayeredReality.bsp
          883 planes            17660
         3842 vertexes          46104
          968 nodes             23232
          251 texinfo           10040
         2913 faces             58260
         5170 clipnodes         41360
          575 leafs             16100
         3502 marksurfaces       7004
        13890 surfedges         55560
         6946 edges             27784
            9 textures         141800
              lightdata             0
              visdata               0
              entdata            4049

0.547 seconds elapsed
Peak memory usage: 22715412 (21.7M)
