---- qbsp / ericw-tools v0.18.1 ----
Input file: layeredreality2.map
Output file: layeredreality2.bsp

---- LoadMapFile ----
         2543 faces
          395 brushes
          127 entities
           56 unique texnames
          646 texinfo

Opened WAD: C:/Users/jackb/Documents/quake-leveldesign-starterkit-master/wads/START.WAD
Opened WAD: ../wads/prototype_1_2.wad
Processing hull 0...
---- Brush_LoadEntity ----
          395 brushes
          792 planes
---- CSGFaces ----
         2543 brushfaces
         2927 csgfaces
         2668 mergedfaces
---- SolidBSP ----
         3926 split nodes
         1313 solid leafs
         2472 empty leafs
          142 water leafs
            0 detail leafs
            0 detail illusionary leafs
            0 detail fence leafs
            0 illusionary visblocker leafs
         9393 leaffaces
         8168 nodefaces
---- Portalize ----
         2614 vis leafs
         2614 vis clusters
         8671 vis portals
---- FillOutside ----
          538 outleafs
---- MergeAll ----
         2752 mergefaces
---- SolidBSP ----
         1853 split nodes
          621 solid leafs
         1199 empty leafs
           34 water leafs
            0 detail leafs
            0 detail illusionary leafs
            0 detail fence leafs
            0 illusionary visblocker leafs
         6987 leaffaces
         4927 nodefaces
---- Portalize ----
         1233 vis leafs
         1233 vis clusters
         4847 vis portals
---- Tjunc ----
         4049 world edges
        16265 edge points
         3996 edges added by tjunctions
            0 faces added by tjunctions
---- MakeFaceEdges ----
---- GrowRegions ----
Processing hull 1...
Processing hull 2...
---- WriteBSPFile ----
Wrote layeredreality2.bsp
         1863 planes            37260
         6315 vertexes          75780
         1853 nodes             44472
          427 texinfo           17080
         4927 faces             98540
         7550 clipnodes         60400
         1234 leafs             34552
         6987 marksurfaces      13974
        23302 surfedges         93208
        11652 edges             46608
           56 textures         501668
              lightdata             0
              visdata               0
              entdata           10770

0.872 seconds elapsed
Peak memory usage: 35408986 (33.8M)
