---- qbsp / ericw-tools v0.18.1 ----
Input file: LayeredReality.map
Output file: LayeredReality.bsp

---- LoadMapFile ----
         1878 faces
          309 brushes
           64 entities
           29 unique texnames
          409 texinfo

Opened WAD: C:/Users/jackb/Documents/quake-leveldesign-starterkit-master/wads/START.WAD
Opened WAD: ../wads/prototype_1_2.wad
Processing hull 0...
---- Brush_LoadEntity ----
          309 brushes
          532 planes
---- CSGFaces ----
         1878 brushfaces
         1912 csgfaces
         1753 mergedfaces
---- SolidBSP ----
         2692 split nodes
          959 solid leafs
         1610 empty leafs
          124 water leafs
            0 detail leafs
            0 detail illusionary leafs
            0 detail fence leafs
            0 illusionary visblocker leafs
         6609 leaffaces
         6129 nodefaces
---- Portalize ----
         1734 vis leafs
         1734 vis clusters
         6023 vis portals
---- FillOutside ----
          458 outleafs
---- MergeAll ----
         1764 mergefaces
---- SolidBSP ----
         1211 split nodes
          460 solid leafs
          721 empty leafs
           31 water leafs
            0 detail leafs
            0 detail illusionary leafs
            0 detail fence leafs
            0 illusionary visblocker leafs
         4113 leaffaces
         3404 nodefaces
---- Portalize ----
          752 vis leafs
          752 vis clusters
         3200 vis portals
---- Tjunc ----
         2749 world edges
        11297 edge points
         2887 edges added by tjunctions
            0 faces added by tjunctions
---- MakeFaceEdges ----
---- GrowRegions ----
Processing hull 1...
Processing hull 2...
---- WriteBSPFile ----
Wrote LayeredReality.bsp
         1143 planes            22860
         4440 vertexes          53280
         1211 nodes             29064
          300 texinfo           12000
         3404 faces             68080
         5689 clipnodes         45512
          753 leafs             21084
         4113 marksurfaces       8226
        16422 surfedges         65688
         8212 edges             32848
           30 textures         287020
              lightdata             0
              visdata               0
              entdata            4069

0.779 seconds elapsed
Peak memory usage: 25700170 (24.5M)
