---- qbsp / ericw-tools v0.18.1 ----
Input file: LayeredReality.map
Output file: LayeredReality.bsp

---- LoadMapFile ----
         1008 faces
          165 brushes
           16 entities
            8 unique texnames
          291 texinfo

Opened WAD: C:/Users/jackb/Documents/quake-leveldesign-starterkit-master/wads/START.WAD
Opened WAD: ../wads/prototype_1_2.wad
Processing hull 0...
---- Brush_LoadEntity ----
          165 brushes
          235 planes
---- CSGFaces ----
         1008 brushfaces
          960 csgfaces
          853 mergedfaces
---- SolidBSP ----
         1421 split nodes
          555 solid leafs
          822 empty leafs
           45 water leafs
            0 detail leafs
            0 detail illusionary leafs
            0 detail fence leafs
            0 illusionary visblocker leafs
         4274 leaffaces
         4017 nodefaces
---- Portalize ----
          867 vis leafs
          867 vis clusters
         2567 vis portals
---- FillOutside ----
          329 outleafs
---- MergeAll ----
          825 mergefaces
---- SolidBSP ----
          751 split nodes
          324 solid leafs
          413 empty leafs
           15 water leafs
            0 detail leafs
            0 detail illusionary leafs
            0 detail fence leafs
            0 illusionary visblocker leafs
         2697 leaffaces
         2350 nodefaces
---- Portalize ----
          428 vis leafs
          428 vis clusters
         1463 vis portals
---- Tjunc ----
         1559 world edges
         7503 edge points
         1652 edges added by tjunctions
            0 faces added by tjunctions
---- MakeFaceEdges ----
---- GrowRegions ----
Processing hull 1...
Processing hull 2...
*** WARNING 16: Texture __TB_empty not found
---- WriteBSPFile ----
Wrote LayeredReality.bsp
          504 planes            10080
         3051 vertexes          36612
          751 nodes             18024
          239 texinfo            9560
         2350 faces             47000
         2101 clipnodes         16808
          429 leafs             12012
         2697 marksurfaces       5394
        11040 surfedges         44160
         5521 edges             22084
            8 textures         136316
              lightdata             0
              visdata               0
              entdata             969

0.357 seconds elapsed
Peak memory usage: 13509310 (12.9M)
