---- qbsp / ericw-tools v0.18.1 ----
Input file: layeredreality2.map
Output file: layeredreality2.bsp

---- LoadMapFile ----
         2543 faces
          395 brushes
          127 entities
           56 unique texnames
          641 texinfo

Opened WAD: C:/Users/jackb/Documents/quake-leveldesign-starterkit-master/wads/START.WAD
Opened WAD: ../wads/prototype_1_2.wad
Processing hull 0...
---- Brush_LoadEntity ----
          395 brushes
          791 planes
---- CSGFaces ----
         2543 brushfaces
         2930 csgfaces
         2669 mergedfaces
---- SolidBSP ----
         3923 split nodes
         1312 solid leafs
         2470 empty leafs
          142 water leafs
            0 detail leafs
            0 detail illusionary leafs
            0 detail fence leafs
            0 illusionary visblocker leafs
         9403 leaffaces
         8179 nodefaces
---- Portalize ----
         2612 vis leafs
         2612 vis clusters
         8664 vis portals
---- FillOutside ----
          538 outleafs
---- MergeAll ----
         2754 mergefaces
---- SolidBSP ----
         1856 split nodes
          625 solid leafs
         1198 empty leafs
           34 water leafs
            0 detail leafs
            0 detail illusionary leafs
            0 detail fence leafs
            0 illusionary visblocker leafs
         6978 leaffaces
         4929 nodefaces
---- Portalize ----
         1232 vis leafs
         1232 vis clusters
         4840 vis portals
---- Tjunc ----
         4051 world edges
        16275 edge points
         4009 edges added by tjunctions
            0 faces added by tjunctions
---- MakeFaceEdges ----
---- GrowRegions ----
Processing hull 1...
Processing hull 2...
---- WriteBSPFile ----
Wrote layeredreality2.bsp
         1862 planes            37240
         6322 vertexes          75864
         1856 nodes             44544
          422 texinfo           16880
         4929 faces             98580
         7550 clipnodes         60400
         1233 leafs             34524
         6978 marksurfaces      13956
        23324 surfedges         93296
        11663 edges             46652
           56 textures         501668
              lightdata             0
              visdata               0
              entdata           10799

0.836 seconds elapsed
Peak memory usage: 35413208 (33.8M)
